/PREP7
! timber material
mp,ex,1,13600.0
mp,ey,1,300.0
mp,ez,1,300.0
mp,prxy,1,0.35
mp,pryz,1,0.35
mp,prxz,1,0.35
mp,gxy,1,650.0
mp,gyz,1,65.0
mp,gxz,1,650.0

! timber failure: maximum stress criterion (EN 14080 characteristic values)
! tbdata: Xc, Xt, Yc, Yt, Zc, Zt, Sxy, Syz, Sxz  [MPa]
tb,fail,1,,,mxst
tbdata,1,30.0,24.0,2.5,0.5,2.5,0.5,3.5,3.5,3.5

! steel material
mp,ex,2,210000
mp,prxy,2,0.3

! steel plasticity: bilinear isotropic hardening (S355)
! tbdata: fy [MPa], tangent modulus Et=E/100 [MPa]
tb,biso,2
tbdata,1,355,2100

! element type: SOLID187 (10-node tet, better for curved geometry)
et,1,187

! timber beam volume
block,0,1000.0, 0,200.0, 0,140.0
*get,vid_beam,volu,0,num,max
cm,BEAM,volu,vid_beam
allsel,all

! beam slots and steel plates
! Cut slot 1 from BEAM (z = 66.000 to 74.000)
block,679.0,1001.0, -1,201.0, 65.0,75.0
*get,vid_slot,volu,0,num,max
cmsel,s,BEAM
*get,vid_beam,volu,0,num,min
allsel,all
vsbv,vid_beam,vid_slot
cmdele,BEAM
cm,BEAM,volu
allsel,all

! Create PLATE1 (z = 66.000 to 74.000)
block,680.0,1000.0, 30.0,170.0, 66.0,74.0
*get,vid_plate,volu,0,num,max
cm,PLATE1,volu,vid_plate
allsel,all

! round holes in BEAM for dowels (exact diameter)
allsel,all

CSYS,0
WPCSYS,-1
WPOFFS,0,0,0
WPROTA,0,0,0

CYL4,780.0,70.0,6.3,,,,140.0
*get,vid_hole,volu,0,num,max
cmsel,s,BEAM
*get,vid_beam,volu,0,num,min
allsel,all
vsbv,vid_beam,vid_hole
cmdele,BEAM
cm,BEAM,volu
allsel,all

CSYS,0
WPCSYS,-1
WPOFFS,0,0,0
WPROTA,0,0,0

CYL4,900.0,70.0,6.3,,,,140.0
*get,vid_hole,volu,0,num,max
cmsel,s,BEAM
*get,vid_beam,volu,0,num,min
allsel,all
vsbv,vid_beam,vid_hole
cmdele,BEAM
cm,BEAM,volu
allsel,all

CSYS,0
WPCSYS,-1
WPOFFS,0,0,0
WPROTA,0,0,0

CYL4,780.0,130.0,6.3,,,,140.0
*get,vid_hole,volu,0,num,max
cmsel,s,BEAM
*get,vid_beam,volu,0,num,min
allsel,all
vsbv,vid_beam,vid_hole
cmdele,BEAM
cm,BEAM,volu
allsel,all

CSYS,0
WPCSYS,-1
WPOFFS,0,0,0
WPROTA,0,0,0

CYL4,900.0,130.0,6.3,,,,140.0
*get,vid_hole,volu,0,num,max
cmsel,s,BEAM
*get,vid_beam,volu,0,num,min
allsel,all
vsbv,vid_beam,vid_hole
cmdele,BEAM
cm,BEAM,volu
allsel,all

! slotted holes in plate(s) (elongated in Y only)
allsel,all

! Slots in PLATE1

allsel,all
cmsel,s,PLATE1

CSYS,0
WPCSYS,-1
WPOFFS,0,0,66.0
WPROTA,0,0,0

CYL4,780.0,69.5,6.3,,,,8
*get,vtool,volu,0,num,max
cmsel,s,PLATE1
vsbv,all,vtool
cmdele,PLATE1
cm,PLATE1,volu
allsel,all
vdele,vtool
allsel,all

CYL4,780.0,70.5,6.3,,,,8
*get,vtool,volu,0,num,max
cmsel,s,PLATE1
vsbv,all,vtool
cmdele,PLATE1
cm,PLATE1,volu
allsel,all
vdele,vtool
allsel,all

block,773.7,786.3, 69.5,70.5, 66.0,74.0
*get,vtool,volu,0,num,max
cmsel,s,PLATE1
vsbv,all,vtool
cmdele,PLATE1
cm,PLATE1,volu
allsel,all
vdele,vtool
allsel,all

WPOFFS,0,0,0
allsel,all

allsel,all
cmsel,s,PLATE1

CSYS,0
WPCSYS,-1
WPOFFS,0,0,66.0
WPROTA,0,0,0

CYL4,900.0,69.5,6.3,,,,8
*get,vtool,volu,0,num,max
cmsel,s,PLATE1
vsbv,all,vtool
cmdele,PLATE1
cm,PLATE1,volu
allsel,all
vdele,vtool
allsel,all

CYL4,900.0,70.5,6.3,,,,8
*get,vtool,volu,0,num,max
cmsel,s,PLATE1
vsbv,all,vtool
cmdele,PLATE1
cm,PLATE1,volu
allsel,all
vdele,vtool
allsel,all

block,893.7,906.3, 69.5,70.5, 66.0,74.0
*get,vtool,volu,0,num,max
cmsel,s,PLATE1
vsbv,all,vtool
cmdele,PLATE1
cm,PLATE1,volu
allsel,all
vdele,vtool
allsel,all

WPOFFS,0,0,0
allsel,all

allsel,all
cmsel,s,PLATE1

CSYS,0
WPCSYS,-1
WPOFFS,0,0,66.0
WPROTA,0,0,0

CYL4,780.0,129.5,6.3,,,,8
*get,vtool,volu,0,num,max
cmsel,s,PLATE1
vsbv,all,vtool
cmdele,PLATE1
cm,PLATE1,volu
allsel,all
vdele,vtool
allsel,all

CYL4,780.0,130.5,6.3,,,,8
*get,vtool,volu,0,num,max
cmsel,s,PLATE1
vsbv,all,vtool
cmdele,PLATE1
cm,PLATE1,volu
allsel,all
vdele,vtool
allsel,all

block,773.7,786.3, 129.5,130.5, 66.0,74.0
*get,vtool,volu,0,num,max
cmsel,s,PLATE1
vsbv,all,vtool
cmdele,PLATE1
cm,PLATE1,volu
allsel,all
vdele,vtool
allsel,all

WPOFFS,0,0,0
allsel,all

allsel,all
cmsel,s,PLATE1

CSYS,0
WPCSYS,-1
WPOFFS,0,0,66.0
WPROTA,0,0,0

CYL4,900.0,129.5,6.3,,,,8
*get,vtool,volu,0,num,max
cmsel,s,PLATE1
vsbv,all,vtool
cmdele,PLATE1
cm,PLATE1,volu
allsel,all
vdele,vtool
allsel,all

CYL4,900.0,130.5,6.3,,,,8
*get,vtool,volu,0,num,max
cmsel,s,PLATE1
vsbv,all,vtool
cmdele,PLATE1
cm,PLATE1,volu
allsel,all
vdele,vtool
allsel,all

block,893.7,906.3, 129.5,130.5, 66.0,74.0
*get,vtool,volu,0,num,max
cmsel,s,PLATE1
vsbv,all,vtool
cmdele,PLATE1
cm,PLATE1,volu
allsel,all
vdele,vtool
allsel,all

WPOFFS,0,0,0
allsel,all

WPOFFS,0,0,0
allsel,all

! dowels
! CYL4 is used with WP reset for robustness
cmdele,DOWELS

cmdele,DOWEL1
cmdele,DOWEL2
cmdele,DOWEL3
cmdele,DOWEL4

allsel,all
csys,0
wpcsys,0
wpoffs,0,0,0

cyl4,780.0,70.0,6.0,,,0,140.0
*get,vid_dowel,volu,0,num,max
cm,DOWEL1,volu,vid_dowel

allsel,all

allsel,all
csys,0
wpcsys,0
wpoffs,0,0,0

cyl4,900.0,70.0,6.0,,,0,140.0
*get,vid_dowel,volu,0,num,max
cm,DOWEL2,volu,vid_dowel

allsel,all

allsel,all
csys,0
wpcsys,0
wpoffs,0,0,0

cyl4,780.0,130.0,6.0,,,0,140.0
*get,vid_dowel,volu,0,num,max
cm,DOWEL3,volu,vid_dowel

allsel,all

allsel,all
csys,0
wpcsys,0
wpoffs,0,0,0

cyl4,900.0,130.0,6.0,,,0,140.0
*get,vid_dowel,volu,0,num,max
cm,DOWEL4,volu,vid_dowel

allsel,all

! build DOWELS component from individual dowels
cmdele,DOWELS
cmsel,s,DOWEL1
cmsel,a,DOWEL2
cmsel,a,DOWEL3
cmsel,a,DOWEL4
cm,DOWELS,volu
allsel,all

! debug: count volumes per component
allsel,all
cmsel,s,BEAM
*get,n_beam,volu,0,count
/com, BEAM selected vols = %n_beam%
allsel,all
cmsel,s,PLATE1
*get,n_plate1,volu,0,count
/com, PLATE1 selected vols = %n_plate1%
allsel,all
cmsel,s,DOWELS
*get,n_dowels,volu,0,count
/com, DOWELS selected vols = %n_dowels%
allsel,all

! ---- pre-mesh volume attribute hints (vatt) ----
! These set the default, but emodif after meshing is authoritative.

allsel,all
vatt,2,,1

cmsel,s,BEAM
vatt,1,,1
allsel,all

! debug each component separately
/com, --- BEAM component ---
allsel,all
cmsel,s,BEAM
vlist,all
/com, --- PLATE1 component ---
allsel,all
cmsel,s,PLATE1
vlist,all
/com, --- DOWELS component ---
allsel,all
cmsel,s,DOWELS
vlist,all
allsel,all

! debug volume list
allsel,all
vlist,all

! Local mesh refinement around dowel holes (LESIZE = 5.0 mm)
allsel,all

! Dowel 1  x=780.0  y=70.0
LSEL,S,LOC,X,765.70,794.30
LSEL,R,LOC,Y,55.70,84.30
LESIZE,ALL,5.00
ALLSEL,ALL

! Dowel 2  x=900.0  y=70.0
LSEL,S,LOC,X,885.70,914.30
LSEL,R,LOC,Y,55.70,84.30
LESIZE,ALL,5.00
ALLSEL,ALL

! Dowel 3  x=780.0  y=130.0
LSEL,S,LOC,X,765.70,794.30
LSEL,R,LOC,Y,115.70,144.30
LESIZE,ALL,5.00
ALLSEL,ALL

! Dowel 4  x=900.0  y=130.0
LSEL,S,LOC,X,885.70,914.30
LSEL,R,LOC,Y,115.70,144.30
LESIZE,ALL,5.00
ALLSEL,ALL

! meshing
mshape,1,3d
mshkey,0
esize,20.0

! mesh BEAM
cmsel,s,BEAM
vmesh,all
allsel,all

! mesh PLATE1
cmsel,s,PLATE1
vmesh,all
allsel,all

! mesh DOWELS
cmsel,s,DOWELS
vmesh,all
allsel,all

*get,nn,node,0,count
*get,ne,elem,0,count
/com, NODE=%nn%  ELEM=%ne%

! ---- post-mesh material assignment (emodif) ----

! BEAM -> timber (mat 1)
allsel,all
cmsel,s,BEAM
esla,s
emodif,all,mat,1
allsel,all

! PLATE1 -> steel (mat 2)
allsel,all
cmsel,s,PLATE1
esla,s
emodif,all,mat,2
allsel,all

! DOWELS -> steel (mat 2)
allsel,all
cmsel,s,DOWELS
esla,s
emodif,all,mat,2
allsel,all

! ============================================================
! FRICTIONAL CONTACT - Augmented Lagrangian
! mat 3: steel-on-timber (mu=0.3)  mat 4: steel-on-steel (mu=0.15)
! 4 dowels x (1 beam pair + 1 plate pair(s)) = 8 real sets
! ============================================================
/prep7
allsel,all

! friction contact materials
mp,mu,3,0.3
mp,mu,4,0.15

et,2,targe170
et,3,conta174

! Augmented Lagrangian (keyopt 2=0): avoids MPC self-contact issue
keyopt,3,2,0
! Standard frictional contact (keyopt 12=0)
keyopt,3,12,0
! Ignore initial gap/penetration -> prevents initial offset errors
keyopt,3,9,1

r,1
r,2
r,3
r,4
r,5
r,6
r,7
r,8

! ---- DOWEL 1  x=780.0  y=70.0 ----
! Pair 1: dowel 1 -> beam hole (mu=0.3)

! TARGET: dowel cylindrical surface (full Z)
allsel,all
cmsel,s,DOWEL1
nslv,s,1
nsel,r,loc,x,762.0,798.0
nsel,r,loc,y,52.0,88.0
type,2
real,1
mat,2
esurf
allsel,all

! CONTACT: timber hole surface (mat 3, mu=0.3)
allsel,all
cmsel,s,BEAM
nslv,s,1
nsel,r,loc,x,762.0,798.0
nsel,r,loc,y,52.0,88.0
nsel,r,loc,z,0,140.0
type,3
real,1
mat,3
esurf
allsel,all

! Pair 2: dowel 1 -> PLATE1 slot (mu=0.15)

! TARGET: dowel 1 nodes in PLATE1 Z-zone
allsel,all
cmsel,s,DOWEL1
nslv,s,1
nsel,r,loc,x,762.0,798.0
nsel,r,loc,y,52.0,88.0
nsel,r,loc,z,66.0,74.0
type,2
real,2
mat,2
esurf
allsel,all

! CONTACT: PLATE1 slot nodes (mat 4, mu=0.15)
allsel,all
cmsel,s,PLATE1
nslv,s,1
nsel,r,loc,x,762.0,798.0
nsel,r,loc,y,52.0,88.0
nsel,r,loc,z,66.0,74.0
type,3
real,2
mat,4
esurf
allsel,all

! ---- DOWEL 2  x=900.0  y=70.0 ----
! Pair 3: dowel 2 -> beam hole (mu=0.3)

! TARGET: dowel cylindrical surface (full Z)
allsel,all
cmsel,s,DOWEL2
nslv,s,1
nsel,r,loc,x,882.0,918.0
nsel,r,loc,y,52.0,88.0
type,2
real,3
mat,2
esurf
allsel,all

! CONTACT: timber hole surface (mat 3, mu=0.3)
allsel,all
cmsel,s,BEAM
nslv,s,1
nsel,r,loc,x,882.0,918.0
nsel,r,loc,y,52.0,88.0
nsel,r,loc,z,0,140.0
type,3
real,3
mat,3
esurf
allsel,all

! Pair 4: dowel 2 -> PLATE1 slot (mu=0.15)

! TARGET: dowel 2 nodes in PLATE1 Z-zone
allsel,all
cmsel,s,DOWEL2
nslv,s,1
nsel,r,loc,x,882.0,918.0
nsel,r,loc,y,52.0,88.0
nsel,r,loc,z,66.0,74.0
type,2
real,4
mat,2
esurf
allsel,all

! CONTACT: PLATE1 slot nodes (mat 4, mu=0.15)
allsel,all
cmsel,s,PLATE1
nslv,s,1
nsel,r,loc,x,882.0,918.0
nsel,r,loc,y,52.0,88.0
nsel,r,loc,z,66.0,74.0
type,3
real,4
mat,4
esurf
allsel,all

! ---- DOWEL 3  x=780.0  y=130.0 ----
! Pair 5: dowel 3 -> beam hole (mu=0.3)

! TARGET: dowel cylindrical surface (full Z)
allsel,all
cmsel,s,DOWEL3
nslv,s,1
nsel,r,loc,x,762.0,798.0
nsel,r,loc,y,112.0,148.0
type,2
real,5
mat,2
esurf
allsel,all

! CONTACT: timber hole surface (mat 3, mu=0.3)
allsel,all
cmsel,s,BEAM
nslv,s,1
nsel,r,loc,x,762.0,798.0
nsel,r,loc,y,112.0,148.0
nsel,r,loc,z,0,140.0
type,3
real,5
mat,3
esurf
allsel,all

! Pair 6: dowel 3 -> PLATE1 slot (mu=0.15)

! TARGET: dowel 3 nodes in PLATE1 Z-zone
allsel,all
cmsel,s,DOWEL3
nslv,s,1
nsel,r,loc,x,762.0,798.0
nsel,r,loc,y,112.0,148.0
nsel,r,loc,z,66.0,74.0
type,2
real,6
mat,2
esurf
allsel,all

! CONTACT: PLATE1 slot nodes (mat 4, mu=0.15)
allsel,all
cmsel,s,PLATE1
nslv,s,1
nsel,r,loc,x,762.0,798.0
nsel,r,loc,y,112.0,148.0
nsel,r,loc,z,66.0,74.0
type,3
real,6
mat,4
esurf
allsel,all

! ---- DOWEL 4  x=900.0  y=130.0 ----
! Pair 7: dowel 4 -> beam hole (mu=0.3)

! TARGET: dowel cylindrical surface (full Z)
allsel,all
cmsel,s,DOWEL4
nslv,s,1
nsel,r,loc,x,882.0,918.0
nsel,r,loc,y,112.0,148.0
type,2
real,7
mat,2
esurf
allsel,all

! CONTACT: timber hole surface (mat 3, mu=0.3)
allsel,all
cmsel,s,BEAM
nslv,s,1
nsel,r,loc,x,882.0,918.0
nsel,r,loc,y,112.0,148.0
nsel,r,loc,z,0,140.0
type,3
real,7
mat,3
esurf
allsel,all

! Pair 8: dowel 4 -> PLATE1 slot (mu=0.15)

! TARGET: dowel 4 nodes in PLATE1 Z-zone
allsel,all
cmsel,s,DOWEL4
nslv,s,1
nsel,r,loc,x,882.0,918.0
nsel,r,loc,y,112.0,148.0
nsel,r,loc,z,66.0,74.0
type,2
real,8
mat,2
esurf
allsel,all

! CONTACT: PLATE1 slot nodes (mat 4, mu=0.15)
allsel,all
cmsel,s,PLATE1
nslv,s,1
nsel,r,loc,x,882.0,918.0
nsel,r,loc,y,112.0,148.0
nsel,r,loc,z,66.0,74.0
type,3
real,8
mat,4
esurf
allsel,all

! ============================================================
allsel,all

! PINB = 10 mm for all contact pairs (field 4 of CONTA174 real constants).
! Prevents missed contact from curved-surface facet gaps (~1 mm at 10 mm mesh).
*do,ipinb,1,8
rmodif,ipinb,4,10.0
*enddo
allsel,all
